Version 4
SHEET 1 2000 3820
WIRE 736 624 736 608
WIRE 480 640 480 608
WIRE 736 640 736 624
WIRE 320 688 304 688
WIRE 400 688 320 688
WIRE 656 688 576 688
WIRE 576 704 576 688
WIRE 576 704 544 704
WIRE 944 704 944 688
WIRE 1184 704 1184 688
WIRE 400 720 304 720
WIRE 576 720 576 704
WIRE 656 720 576 720
WIRE 944 736 944 704
WIRE 1184 736 1184 704
WIRE 800 784 800 704
WIRE 864 784 800 784
WIRE 1104 784 1040 784
WIRE 1040 800 1040 784
WIRE 1040 800 1008 800
WIRE 1328 800 1248 800
WIRE 336 816 304 816
WIRE 864 816 336 816
WIRE 1040 816 1040 800
WIRE 1104 816 1040 816
WIRE 560 1008 560 992
WIRE 560 1024 560 1008
WIRE 816 1024 816 992
WIRE 400 1072 384 1072
WIRE 480 1072 400 1072
WIRE 736 1072 656 1072
WIRE 656 1088 656 1072
WIRE 656 1088 624 1088
WIRE 1024 1088 1024 1072
WIRE 1264 1088 1264 1072
WIRE 320 1104 320 1088
WIRE 416 1104 384 1104
WIRE 480 1104 416 1104
WIRE 656 1104 656 1088
WIRE 736 1104 656 1104
WIRE 1024 1120 1024 1088
WIRE 1264 1120 1264 1088
WIRE 320 1136 320 1104
WIRE 880 1168 880 1088
WIRE 944 1168 880 1168
WIRE 1184 1168 1120 1168
WIRE 240 1184 128 1184
WIRE 1120 1184 1120 1168
WIRE 1120 1184 1088 1184
WIRE 1408 1184 1328 1184
WIRE 48 1200 16 1200
WIRE 128 1200 128 1184
WIRE 128 1200 48 1200
WIRE 944 1200 384 1200
WIRE 1120 1200 1120 1184
WIRE 1184 1200 1120 1200
WIRE 128 1216 128 1200
WIRE 240 1216 128 1216
WIRE 304 1440 304 1424
WIRE 544 1440 544 1424
WIRE 800 1440 800 1424
WIRE 544 1456 544 1440
WIRE 800 1456 800 1440
WIRE 304 1472 304 1440
WIRE 384 1504 368 1504
WIRE 464 1504 384 1504
WIRE 720 1504 640 1504
WIRE 224 1520 112 1520
WIRE 640 1520 640 1504
WIRE 640 1520 608 1520
WIRE 1008 1520 1008 1504
WIRE 1248 1520 1248 1504
WIRE 32 1536 0 1536
WIRE 112 1536 112 1520
WIRE 112 1536 32 1536
WIRE 464 1536 368 1536
WIRE 640 1536 640 1520
WIRE 720 1536 640 1536
WIRE 112 1552 112 1536
WIRE 224 1552 112 1552
WIRE 1008 1552 1008 1520
WIRE 1248 1552 1248 1520
WIRE 864 1600 864 1520
WIRE 928 1600 864 1600
WIRE 1168 1600 1104 1600
WIRE 1104 1616 1104 1600
WIRE 1104 1616 1072 1616
WIRE 1392 1616 1312 1616
WIRE 384 1632 368 1632
WIRE 928 1632 384 1632
WIRE 1104 1632 1104 1616
WIRE 1168 1632 1104 1632
WIRE 320 1760 320 1744
WIRE 560 1760 560 1744
WIRE 560 1776 560 1760
WIRE 816 1776 816 1744
WIRE 320 1792 320 1760
WIRE 400 1824 384 1824
WIRE 480 1824 400 1824
WIRE 736 1824 656 1824
WIRE 240 1840 128 1840
WIRE 656 1840 656 1824
WIRE 656 1840 624 1840
WIRE 1264 1840 1264 1824
WIRE 48 1856 16 1856
WIRE 128 1856 128 1840
WIRE 128 1856 48 1856
WIRE 480 1856 384 1856
WIRE 656 1856 656 1840
WIRE 736 1856 656 1856
WIRE 1024 1856 1024 1824
WIRE 128 1872 128 1856
WIRE 240 1872 128 1872
WIRE 1024 1872 1024 1856
WIRE 1264 1872 1264 1840
WIRE 320 1920 320 1904
WIRE 880 1920 880 1840
WIRE 944 1920 880 1920
WIRE 1184 1920 1120 1920
WIRE 1120 1936 1120 1920
WIRE 1120 1936 1088 1936
WIRE 1408 1936 1328 1936
WIRE 320 1952 320 1920
WIRE 944 1952 384 1952
WIRE 1120 1952 1120 1936
WIRE 1184 1952 1120 1952
WIRE -432 1968 -624 1968
WIRE 240 2000 128 2000
WIRE 48 2016 16 2016
WIRE 128 2016 128 2000
WIRE 128 2016 48 2016
WIRE 384 2016 384 1952
WIRE 128 2032 128 2016
WIRE 240 2032 128 2032
WIRE -432 2096 -640 2096
WIRE -432 2160 -624 2160
WIRE 528 2176 528 2160
WIRE 784 2176 784 2160
WIRE 288 2192 288 2176
WIRE 528 2192 528 2176
WIRE 784 2192 784 2176
WIRE 288 2224 288 2192
WIRE 448 2240 352 2240
WIRE 704 2240 624 2240
WIRE 624 2256 624 2240
WIRE 624 2256 592 2256
WIRE 992 2256 992 2240
WIRE 1232 2256 1232 2240
WIRE 208 2272 96 2272
WIRE 448 2272 400 2272
WIRE 624 2272 624 2256
WIRE 704 2272 624 2272
WIRE 16 2288 -16 2288
WIRE 96 2288 96 2272
WIRE 96 2288 16 2288
WIRE 352 2288 352 2240
WIRE 992 2288 992 2256
WIRE 1232 2288 1232 2256
WIRE -400 2304 -704 2304
WIRE 96 2304 96 2288
WIRE 208 2304 96 2304
WIRE 848 2336 848 2256
WIRE 912 2336 848 2336
WIRE 1152 2336 1088 2336
WIRE 1088 2352 1088 2336
WIRE 1088 2352 1056 2352
WIRE 1376 2352 1296 2352
WIRE 416 2368 352 2368
WIRE 912 2368 416 2368
WIRE 1088 2368 1088 2352
WIRE 1152 2368 1088 2368
WIRE 288 2560 288 2544
WIRE 288 2592 288 2560
WIRE 528 2592 528 2576
WIRE 784 2592 784 2576
WIRE 528 2608 528 2592
WIRE 784 2608 784 2592
WIRE 208 2640 96 2640
WIRE 16 2656 -16 2656
WIRE 96 2656 96 2640
WIRE 96 2656 16 2656
WIRE 448 2656 352 2656
WIRE 704 2656 624 2656
WIRE 96 2672 96 2656
WIRE 208 2672 96 2672
WIRE 624 2672 624 2656
WIRE 624 2672 592 2672
WIRE 992 2672 992 2656
WIRE 384 2688 352 2688
WIRE 448 2688 384 2688
WIRE 624 2688 624 2672
WIRE 704 2688 624 2688
WIRE 992 2704 992 2672
WIRE 1232 2704 1232 2656
WIRE 288 2720 288 2704
WIRE 288 2752 288 2720
WIRE 848 2752 848 2672
WIRE 912 2752 848 2752
WIRE 1152 2752 1088 2752
WIRE 1088 2768 1088 2752
WIRE 1088 2768 1056 2768
WIRE 1376 2768 1296 2768
WIRE 912 2784 352 2784
WIRE 1088 2784 1088 2768
WIRE 1152 2784 1088 2784
WIRE 208 2800 96 2800
WIRE 16 2816 -16 2816
WIRE 96 2816 96 2800
WIRE 96 2816 16 2816
WIRE 352 2816 352 2784
WIRE 96 2832 96 2816
WIRE 208 2832 96 2832
WIRE 288 3040 288 3024
WIRE 784 3040 784 3024
WIRE 528 3072 528 3024
WIRE 784 3072 784 3040
WIRE 208 3088 96 3088
WIRE 16 3104 -16 3104
WIRE 96 3104 96 3088
WIRE 96 3104 16 3104
WIRE 96 3120 96 3104
WIRE 208 3120 96 3120
WIRE 352 3120 352 3104
WIRE 448 3120 352 3120
WIRE 704 3120 624 3120
WIRE 624 3136 624 3120
WIRE 624 3136 592 3136
WIRE 992 3136 992 3120
WIRE 1232 3136 1232 3120
WIRE 448 3152 352 3152
WIRE 624 3152 624 3136
WIRE 704 3152 624 3152
WIRE 288 3168 288 3152
WIRE 992 3168 992 3136
WIRE 1232 3168 1232 3136
WIRE 208 3216 96 3216
WIRE 848 3216 848 3136
WIRE 912 3216 848 3216
WIRE 1152 3216 1088 3216
WIRE 16 3232 -16 3232
WIRE 96 3232 96 3216
WIRE 96 3232 16 3232
WIRE 352 3232 352 3152
WIRE 1088 3232 1088 3216
WIRE 1088 3232 1056 3232
WIRE 1376 3232 1296 3232
WIRE 96 3248 96 3232
WIRE 208 3248 96 3248
WIRE 480 3248 352 3248
WIRE 912 3248 480 3248
WIRE 1088 3248 1088 3232
WIRE 1152 3248 1088 3248
WIRE 272 3440 272 3424
WIRE 192 3488 80 3488
WIRE 0 3504 -32 3504
WIRE 80 3504 80 3488
WIRE 80 3504 0 3504
WIRE 512 3504 512 3488
WIRE 80 3520 80 3504
WIRE 192 3520 80 3520
WIRE 512 3520 512 3504
WIRE 768 3520 768 3488
WIRE 272 3568 272 3552
WIRE 336 3568 336 3504
WIRE 432 3568 336 3568
WIRE 448 3568 432 3568
WIRE 688 3568 608 3568
WIRE 608 3584 608 3568
WIRE 608 3584 576 3584
WIRE 1216 3584 1216 3568
WIRE 432 3600 336 3600
WIRE 608 3600 608 3584
WIRE 688 3600 608 3600
WIRE 192 3616 80 3616
WIRE 976 3616 976 3568
WIRE 1216 3616 1216 3584
WIRE 0 3632 -32 3632
WIRE 80 3632 80 3616
WIRE 80 3632 0 3632
WIRE 336 3632 336 3600
WIRE 80 3648 80 3632
WIRE 192 3648 80 3648
WIRE 832 3664 832 3584
WIRE 896 3664 832 3664
WIRE 1136 3664 1072 3664
WIRE 1072 3680 1072 3664
WIRE 1072 3680 1040 3680
WIRE 1392 3680 1280 3680
WIRE 896 3696 336 3696
WIRE 1072 3696 1072 3680
WIRE 1136 3696 1072 3696
WIRE 272 3712 272 3680
WIRE 192 3760 80 3760
WIRE 0 3776 -32 3776
WIRE 80 3776 80 3760
WIRE 80 3776 0 3776
WIRE 336 3776 336 3696
WIRE 80 3792 80 3776
WIRE 192 3792 80 3792
FLAG 48 1200 C
FLAG 32 1536 B
FLAG 336 816 C
FLAG 384 1632 C
FLAG 48 1856 B
FLAG 48 2016 C
FLAG 16 2288 A
FLAG 416 2368 C
FLAG 16 2656 A
FLAG 16 2816 C
FLAG 16 3104 A
FLAG 16 3232 B
FLAG 480 3248 C
FLAG 0 3504 A
FLAG 0 3632 B
FLAG 0 3776 C
FLAG 480 608 VDD
FLAG 736 624 VDD
FLAG 944 704 VDD
FLAG 1184 704 VDD
FLAG 560 1008 VDD
FLAG 320 688 A
FLAG 304 720 B
FLAG 400 1072 A
FLAG 416 1104 B
FLAG 816 992 VDD
FLAG 1024 1088 VDD
FLAG 1264 1088 VDD
FLAG 320 1104 VDD
FLAG 304 1440 VDD
FLAG 320 1760 VDD
FLAG 320 1920 VDD
FLAG 288 2192 VDD
FLAG 288 2560 VDD
FLAG 288 2720 VDD
FLAG 288 3024 VDD
FLAG 288 3152 VDD
FLAG 272 3424 VDD
FLAG 272 3552 VDD
FLAG 272 3680 VDD
FLAG 512 3504 VDD
FLAG 768 3488 VDD
FLAG 976 3568 VDD
FLAG 1216 3584 VDD
FLAG 528 3024 VDD
FLAG 784 3040 VDD
FLAG 992 3136 VDD
FLAG 1232 3136 VDD
FLAG 528 2592 VDD
FLAG 784 2592 VDD
FLAG 992 2672 VDD
FLAG 1232 2656 VDD
FLAG 528 2176 VDD
FLAG 784 2176 VDD
FLAG 992 2256 VDD
FLAG 1232 2256 VDD
FLAG 560 1760 VDD
FLAG 816 1744 VDD
FLAG 1024 1856 VDD
FLAG 1264 1840 VDD
FLAG 544 1440 VDD
FLAG 800 1440 VDD
FLAG 1008 1520 VDD
FLAG 1248 1520 VDD
FLAG 384 1504 A
FLAG 400 1824 A
FLAG 400 2272 B
FLAG 384 2688 B
FLAG 1376 3232 OUT_1
IOPIN 1376 3232 Out
FLAG 1376 2352 OUT_3
IOPIN 1376 2352 Out
FLAG 1376 2768 OUT_2
IOPIN 1376 2768 Out
FLAG 1408 1936 OUT_4
IOPIN 1408 1936 Out
FLAG 1392 1616 OUT_5
IOPIN 1392 1616 Out
FLAG 1408 1184 OUT_6
IOPIN 1408 1184 Out
FLAG 1328 800 OUT_7
IOPIN 1328 800 Out
FLAG 1392 3680 OUT_0
IOPIN 1392 3680 Out
FLAG -432 1968 A
FLAG -432 2096 B
FLAG -432 2160 C
FLAG -624 1968 IN_0
IOPIN -624 1968 In
FLAG -640 2096 IN_1
IOPIN -640 2096 In
FLAG -624 2160 IN_2
IOPIN -624 2160 In
FLAG -400 2304 VDD
FLAG -704 2304 IN_VDD
IOPIN -704 2304 In
SYMBOL nand 544 1520 R0
SYMATTR InstName X25
SYMBOL nand 800 1520 R0
SYMATTR InstName X26
SYMBOL nand 1008 1616 R0
SYMATTR InstName X27
SYMBOL nand 1248 1616 R0
SYMATTR InstName X28
SYMBOL nand 560 1840 R0
SYMATTR InstName X1
SYMBOL nand 816 1840 R0
SYMATTR InstName X2
SYMBOL nand 1024 1936 R0
SYMATTR InstName X3
SYMBOL nand 1264 1936 R0
SYMATTR InstName X4
SYMBOL nand 480 704 R0
SYMATTR InstName X5
SYMBOL nand 736 704 R0
SYMATTR InstName X6
SYMBOL nand 944 800 R0
SYMATTR InstName X7
SYMBOL nand 1184 800 R0
SYMATTR InstName X8
SYMBOL nand 560 1088 R0
SYMATTR InstName X9
SYMBOL nand 816 1088 R0
SYMATTR InstName X10
SYMBOL nand 1024 1184 R0
SYMATTR InstName X11
SYMBOL nand 1264 1184 R0
SYMATTR InstName X12
SYMBOL nand 528 3136 R0
SYMATTR InstName X13
SYMBOL nand 784 3136 R0
SYMATTR InstName X14
SYMBOL nand 992 3232 R0
SYMATTR InstName X15
SYMBOL nand 1232 3232 R0
SYMATTR InstName X16
SYMBOL nand 512 3584 R0
SYMATTR InstName X17
SYMBOL nand 768 3584 R0
SYMATTR InstName X18
SYMBOL nand 976 3680 R0
SYMATTR InstName X19
SYMBOL nand 1216 3680 R0
SYMATTR InstName X20
SYMBOL nand 528 2256 R0
SYMATTR InstName X21
SYMBOL nand 784 2256 R0
SYMATTR InstName X22
SYMBOL nand 992 2352 R0
SYMATTR InstName X23
SYMBOL nand 1232 2352 R0
SYMATTR InstName X24
SYMBOL nand 528 2672 R0
SYMATTR InstName X29
SYMBOL nand 784 2672 R0
SYMATTR InstName X30
SYMBOL nand 992 2768 R0
SYMATTR InstName X31
SYMBOL nand 1232 2768 R0
SYMATTR InstName X32
SYMBOL nand 320 1200 R0
SYMATTR InstName X33
SYMBOL nand 304 1536 R0
SYMATTR InstName X34
SYMBOL nand 320 1856 R0
SYMATTR InstName X35
SYMBOL nand 320 2016 R0
SYMATTR InstName X36
SYMBOL nand 288 2288 R0
SYMATTR InstName X37
SYMBOL nand 288 2656 R0
SYMATTR InstName X38
SYMBOL nand 288 2816 R0
SYMATTR InstName X39
SYMBOL nand 288 3104 R0
SYMATTR InstName X40
SYMBOL nand 288 3232 R0
SYMATTR InstName X41
SYMBOL nand 272 3504 R0
SYMATTR InstName X42
SYMBOL nand 272 3776 R0
SYMATTR InstName X44
SYMBOL nand 272 3632 R0
SYMATTR InstName X43
