Version 4
SHEET 1 2000 3820
WIRE 1328 800 1248 800
WIRE 1376 800 1328 800
WIRE 1504 800 1376 800
WIRE 1408 1184 1328 1184
WIRE 1456 1184 1408 1184
WIRE 1584 1184 1456 1184
WIRE 1392 1616 1312 1616
WIRE 1424 1616 1392 1616
WIRE 1552 1616 1424 1616
WIRE 112 1664 112 1648
WIRE 112 1680 112 1664
WIRE 112 1792 112 1760
WIRE 112 1872 112 1856
WIRE 112 1888 112 1872
WIRE 816 1888 800 1888
WIRE 816 1920 800 1920
WIRE 1408 1936 1328 1936
WIRE 1440 1936 1408 1936
WIRE 1568 1936 1440 1936
WIRE 592 1952 576 1952
WIRE 816 1952 800 1952
WIRE 592 1984 576 1984
WIRE 816 1984 800 1984
WIRE 112 2000 112 1968
WIRE 592 2016 576 2016
WIRE 816 2016 800 2016
WIRE 592 2048 576 2048
WIRE 816 2048 800 2048
WIRE 816 2080 800 2080
WIRE 112 2096 112 2080
WIRE 816 2112 800 2112
WIRE 112 2128 112 2096
WIRE 112 2240 112 2208
WIRE 112 2352 112 2336
WIRE 1376 2352 1296 2352
WIRE 1424 2352 1376 2352
WIRE 1552 2352 1424 2352
WIRE 112 2368 112 2352
WIRE 112 2464 112 2448
WIRE 1376 2768 1296 2768
WIRE 1408 2768 1376 2768
WIRE 1536 2768 1408 2768
WIRE 1376 3232 1296 3232
WIRE 1408 3232 1376 3232
WIRE 1536 3232 1408 3232
WIRE 1360 3680 1280 3680
WIRE 1392 3680 1360 3680
WIRE 1520 3680 1392 3680
FLAG 112 2000 0
FLAG 112 2240 0
FLAG 112 2464 0
FLAG 112 2352 VDD
FLAG 112 1792 0
FLAG 112 1664 A
FLAG 112 1872 B
FLAG 112 2096 C
FLAG 1360 3680 OUT_0
FLAG 1376 3232 OUT_1
FLAG 1376 2352 OUT_3
FLAG 1376 2768 OUT_2
FLAG 1408 1936 OUT_4
FLAG 1392 1616 OUT_5
FLAG 1408 1184 OUT_6
FLAG 1328 800 OUT_7
FLAG 1376 720 0
FLAG 1504 736 0
FLAG 1456 1104 0
FLAG 1584 1120 0
FLAG 1424 1536 0
FLAG 1552 1552 0
FLAG 1440 1856 0
FLAG 1568 1872 0
FLAG 1424 2272 0
FLAG 1552 2288 0
FLAG 1408 2688 0
FLAG 1536 2704 0
FLAG 1408 3152 0
FLAG 1536 3168 0
FLAG 1392 3600 0
FLAG 1520 3616 0
FLAG 816 1888 OUT_0
FLAG 816 1920 OUT_1
FLAG 816 1952 OUT_2
FLAG 816 1984 OUT_3
FLAG 816 2016 OUT_4
FLAG 816 2048 OUT_5
FLAG 816 2080 OUT_6
FLAG 816 2112 OUT_7
FLAG 576 1952 A
FLAG 576 1984 B
FLAG 576 2016 C
FLAG 576 2048 VDD
SYMBOL voltage 112 1872 R0
WINDOW 123 0 0 Left 0
WINDOW 39 0 0 Left 0
SYMATTR InstName V1
SYMATTR Value 0
SYMBOL voltage 112 2112 R0
WINDOW 123 0 0 Left 0
WINDOW 39 0 0 Left 0
SYMATTR InstName V2
SYMATTR Value 1
SYMBOL voltage 112 2352 R0
WINDOW 123 0 0 Left 0
WINDOW 39 0 0 Left 0
SYMATTR InstName V3
SYMATTR Value PULSE(0 1 0.1n 10p 10p 4n 8n)
SYMBOL voltage 112 1664 R0
WINDOW 123 0 0 Left 0
WINDOW 39 0 0 Left 0
SYMATTR InstName V4
SYMATTR Value 1
SYMBOL res 1360 704 R0
SYMATTR InstName R2
SYMATTR Value 100k
SYMBOL cap 1488 736 R0
SYMATTR InstName C2
SYMATTR Value 100f
SYMBOL res 1440 1088 R0
SYMATTR InstName R3
SYMATTR Value 100k
SYMBOL cap 1568 1120 R0
SYMATTR InstName C3
SYMATTR Value 100f
SYMBOL res 1408 1520 R0
SYMATTR InstName R4
SYMATTR Value 100k
SYMBOL cap 1536 1552 R0
SYMATTR InstName C4
SYMATTR Value 100f
SYMBOL res 1424 1840 R0
SYMATTR InstName R5
SYMATTR Value 100k
SYMBOL cap 1552 1872 R0
SYMATTR InstName C5
SYMATTR Value 100f
SYMBOL res 1408 2256 R0
SYMATTR InstName R6
SYMATTR Value 100k
SYMBOL cap 1536 2288 R0
SYMATTR InstName C6
SYMATTR Value 100f
SYMBOL res 1392 2672 R0
SYMATTR InstName R7
SYMATTR Value 100k
SYMBOL cap 1520 2704 R0
SYMATTR InstName C7
SYMATTR Value 100f
SYMBOL res 1392 3136 R0
SYMATTR InstName R8
SYMATTR Value 100k
SYMBOL cap 1520 3168 R0
SYMATTR InstName C8
SYMATTR Value 100f
SYMBOL res 1376 3584 R0
SYMATTR InstName R9
SYMATTR Value 100k
SYMBOL cap 1504 3616 R0
SYMATTR InstName C9
SYMATTR Value 100f
SYMBOL decoder 688 2000 R0
SYMATTR InstName X1
TEXT 624 2736 Left 2 !.tran 0 40n 0 0.01n
