Version 4
SHEET 1 1080 1136
WIRE 512 288 304 288
WIRE 512 320 512 288
WIRE 432 368 16 368
WIRE 576 384 560 384
WIRE 752 384 576 384
WIRE 864 384 752 384
WIRE 432 400 256 400
WIRE 16 464 16 368
WIRE 752 464 752 384
WIRE 864 480 864 384
WIRE 16 512 16 464
WIRE 304 528 304 288
WIRE 528 528 304 528
WIRE 752 576 752 544
WIRE 864 576 864 544
WIRE 256 720 256 400
WIRE 256 720 16 720
WIRE 528 800 528 528
WIRE 16 816 16 720
WIRE 16 832 16 816
WIRE 528 832 528 800
FLAG 16 816 B
FLAG 16 912 0
FLAG 16 592 0
FLAG 528 912 0
FLAG 16 464 A
FLAG 528 800 VDD
FLAG 752 576 0
FLAG 864 576 0
SYMBOL voltage 16 496 R0
SYMATTR InstName V1
SYMATTR Value PULSE(0 1 1n 10p 10p 8n 16n)
SYMBOL voltage 16 816 R0
SYMATTR InstName V2
SYMATTR Value PULSE(0 1 1n 10p 10p 4n 8n)
SYMBOL voltage 528 816 R0
SYMATTR InstName V3
SYMATTR Value 1
SYMBOL res 736 448 R0
SYMATTR InstName R1
SYMATTR Value 100k
SYMBOL cap 848 480 R0
SYMATTR InstName C1
SYMATTR Value 100f
SYMBOL nand 512 384 R0
SYMATTR InstName X1
TEXT -208 248 Left 2 !.include 90nm_bulk.txt
TEXT 224 1120 Left 2 !.tran 0 30n 0 0.01n
